 &GCHEM_PARM01
 usePCB   = .TRUE., 
 nsubtime = 1     ,
 /
